LTspice 24.1.1 for Windows
Circuit: C:\Users\garre\ese_3190\lab9\LTSpice\full_circuit.net
Start Time: Fri Apr 18 17:41:28 2025
solver = Normal
Maximum thread count: 12
tnom = 27
temp = 27
method = trap
No AC stimulus found:
     Set the value of a current or voltage source to "AC 1."
     to make it behave as a signal generator for AC analysis.
Direct Newton iteration for .op point succeeded.
Total elapsed time: 0.129 seconds.

Files loaded:
C:\Users\garre\ese_3190\lab9\LTSpice\full_circuit.net
C:\Users\garre\AppData\Local\LTspice\lib\cmp\standard.mos
C:\Users\garre\ese_3190\lab9\LTSpice\ALD1103N.txt
C:\Users\garre\ese_3190\lab9\LTSpice\ALD1103P.txt

