LTspice 24.1.1 for Windows
Circuit: C:\Users\garre\ese_3190\lab9\LTSpice\op_amp.net
Start Time: Thu Apr 10 18:06:28 2025
solver = Normal
Maximum thread count: 12
tnom = 27
temp = 27
method = trap
Direct Newton iteration for .op point succeeded.
Total elapsed time: 0.145 seconds.

Files loaded:
C:\Users\garre\ese_3190\lab9\LTSpice\op_amp.net
C:\Users\garre\AppData\Local\LTspice\lib\cmp\standard.mos
C:\Users\garre\ese_3190\lab9\LTSpice\ALD1103N.txt
C:\Users\garre\ese_3190\lab9\LTSpice\ALD1103P.txt

