LTspice 24.1.1 for Windows
Circuit: C:\Users\garre\ese_3190\Final Project.net
Start Time: Tue May 13 16:16:50 2025
solver = Normal
Maximum thread count: 12
tnom = 27
temp = 27
method = trap
Direct Newton iteration for .op point succeeded.
Total elapsed time: 6.638 seconds.

Files loaded:
C:\Users\garre\ese_3190\Final Project.net
C:\Users\garre\AppData\Local\LTspice\lib\cmp\standard.mos
C:\Users\garre\ese_3190\ALD1103N.txt
C:\Users\garre\ese_3190\ALD1103P.txt

