LTspice 24.1.1 for Windows
Circuit: C:\Users\garre\ese_3190\lab4 - CS Amp\LTSpice\exp3.net
Start Time: Thu Feb 20 13:41:28 2025
solver = Normal
Maximum thread count: 12
tnom = 27
temp = 27
method = trap
Direct Newton iteration for .op point succeeded.
Total elapsed time: 0.128 seconds.

Files loaded:
C:\Users\garre\ese_3190\lab4 - CS Amp\LTSpice\exp3.net
C:\Users\garre\AppData\Local\LTspice\lib\cmp\standard.mos
C:\Users\garre\ese_3190\lab4 - CS Amp\LTSpice\ALD1103N.txt

