LTspice 24.1.1 for Windows
Circuit: C:\Users\garre\ese_3190\lab7\LTSpice\prelab 7.net
Start Time: Fri Mar 21 19:41:48 2025
solver = Normal
Maximum thread count: 12
tnom = 27
temp = 27
method = trap
Direct Newton iteration for .op point succeeded.
Total elapsed time: 0.088 seconds.

Files loaded:
C:\Users\garre\ese_3190\lab7\LTSpice\prelab 7.net
C:\Users\garre\AppData\Local\LTspice\lib\cmp\standard.mos
C:\Users\garre\ese_3190\lab7\LTSpice\ALD1103N.txt

