LTspice 24.1.1 for Windows
Circuit: C:\Users\garre\ese_3190\lab6 - Differential Pair Amp\LTSpice\Draft2.net
Start Time: Fri Mar 21 19:45:28 2025
solver = Normal
Maximum thread count: 12
tnom = 27
temp = 27
method = trap
Direct Newton iteration for .op point succeeded.
Total elapsed time: 0.074 seconds.

Files loaded:
C:\Users\garre\ese_3190\lab6 - Differential Pair Amp\LTSpice\Draft2.net
C:\Users\garre\AppData\Local\LTspice\lib\cmp\standard.mos
C:\Users\garre\ese_3190\lab6 - Differential Pair Amp\LTSpice\ALD1103N.txt

