LTspice 24.1.1 for Windows
Circuit: C:\Users\garre\ese_3190\lab6 - Differential Pair Amp\LTSpice\exp1.net
Start Time: Tue Mar  4 15:45:04 2025
solver = Normal
Maximum thread count: 12
tnom = 27
temp = 27
method = trap
Direct Newton iteration for .op point succeeded.
Total elapsed time: 0.311 seconds.

Files loaded:
C:\Users\garre\ese_3190\lab6 - Differential Pair Amp\LTSpice\exp1.net
C:\Users\garre\AppData\Local\LTspice\lib\cmp\standard.mos
C:\Users\garre\ese_3190\lab6 - Differential Pair Amp\LTSpice\ALD1103N.txt

