LTspice 24.1.1 for Windows
Circuit: C:\Users\garre\ese_3190\lab6 - Differential Pair Amp\LTSpice\exp2.net
Start Time: Thu Mar  6 11:54:39 2025
solver = Normal
Maximum thread count: 12
tnom = 27
temp = 27
method = trap
Direct Newton iteration for .op point succeeded.
Total elapsed time: 0.287 seconds.

Files loaded:
C:\Users\garre\ese_3190\lab6 - Differential Pair Amp\LTSpice\exp2.net
C:\Users\garre\AppData\Local\LTspice\lib\cmp\standard.mos
C:\Users\garre\ese_3190\lab6 - Differential Pair Amp\LTSpice\ALD1103N.txt
C:\Users\garre\ese_3190\lab6 - Differential Pair Amp\LTSpice\ALD1103P.txt

