LTspice 24.1.1 for Windows
Circuit: C:\Users\garre\ese_3190\hw\hw3 pmos sim.net
Start Time: Mon Feb 17 12:48:00 2025
solver = Normal
Maximum thread count: 12
tnom = 27
temp = 27
method = trap
.step 
Total elapsed time: 1.375 seconds.

Files loaded:
C:\Users\garre\ese_3190\hw\hw3 pmos sim.net
C:\Users\garre\AppData\Local\LTspice\lib\cmp\standard.mos
C:\Users\garre\ese_3190\hw\ALD1103P.txt

