LTspice 24.1.1 for Windows
Circuit: C:\Users\garre\ese_3190\hw\hw3 simulation.net
Start Time: Sun Feb 16 17:26:41 2025
solver = Normal
Maximum thread count: 12
tnom = 27
temp = 27
method = trap
.step 
Total elapsed time: 0.135 seconds.

Files loaded:
C:\Users\garre\ese_3190\hw\hw3 simulation.net
C:\Users\garre\AppData\Local\LTspice\lib\cmp\standard.mos
C:\Users\garre\ese_3190\hw\ALD1103N.txt

