LTspice 24.1.1 for Windows
Circuit: C:\Users\garre\ese_3190\hw\hw7 differential amp.net
Start Time: Tue Apr  8 20:49:37 2025
solver = Normal
Maximum thread count: 12
tnom = 27
temp = 27
method = trap
Instance "M5": Length shorter than recommended for a level 1 MOSFET.
Instance "M5": Width narrower than recommended for a level 1 MOSFET.
Instance "M4": Length shorter than recommended for a level 1 MOSFET.
Instance "M4": Width narrower than recommended for a level 1 MOSFET.
Instance "M1": Length shorter than recommended for a level 1 MOSFET.
Instance "M2": Length shorter than recommended for a level 1 MOSFET.
Instance "M3": Length shorter than recommended for a level 1 MOSFET.
Instance "M3": Width narrower than recommended for a level 1 MOSFET.
Direct Newton iteration for .op point succeeded.
Total elapsed time: 0.167 seconds.

Files loaded:
C:\Users\garre\ese_3190\hw\hw7 differential amp.net
C:\Users\garre\AppData\Local\LTspice\lib\cmp\standard.mos
C:\Users\garre\ese_3190\hw\MyPMOS.txt
C:\Users\garre\ese_3190\hw\MyNMOS.txt

