LTspice 24.1.1 for Windows
Circuit: C:\Users\garre\ese_3190\lab3 - PMOS\LTSpice\Exp2.net
Start Time: Wed Feb 12 20:06:32 2025
solver = Normal
Maximum thread count: 12
tnom = 27
temp = 27
method = trap
.step 
Total elapsed time: 0.133 seconds.

Files loaded:
C:\Users\garre\ese_3190\lab3 - PMOS\LTSpice\Exp2.net
C:\Users\garre\AppData\Local\LTspice\lib\cmp\standard.mos
C:\Users\garre\ese_3190\lab3 - PMOS\LTSpice\ALD1103P.txt

