LTspice 24.1.1 for Windows
Circuit: C:\Users\garre\ese_3190\lab3 - PMOS\LTSpice\Exp4 - PMOS.net
Start Time: Thu Feb 13 08:32:43 2025
solver = Normal
Maximum thread count: 12
tnom = 27
temp = 27
method = trap
.step 
Total elapsed time: 0.071 seconds.

Files loaded:
C:\Users\garre\ese_3190\lab3 - PMOS\LTSpice\Exp4 - PMOS.net
C:\Users\garre\AppData\Local\LTspice\lib\cmp\standard.mos
C:\Users\garre\ese_3190\lab3 - PMOS\LTSpice\ALD1103P.txt

