LTspice 24.1.1 for Windows
Circuit: C:\Users\garre\ese_3190\lab3 - PMOS\Prelab.net
Start Time: Fri Feb  7 17:42:16 2025
solver = Normal
Maximum thread count: 12
tnom = 27
temp = 27
method = trap
.OP point found by inspection.
.step 
Total elapsed time: 0.137 seconds.

Files loaded:
C:\Users\garre\ese_3190\lab3 - PMOS\Prelab.net
C:\Users\garre\AppData\Local\LTspice\lib\cmp\standard.mos
C:\Users\garre\ese_3190\lab3 - PMOS\ALD1103P.txt

