LTspice 24.1.1 for Windows
Circuit: C:\Users\garre\ese_3190\lab8\LTSpice\cs_amp.net
Start Time: Fri Apr 18 17:44:29 2025
solver = Normal
Maximum thread count: 12
tnom = 27
temp = 27
method = trap
Direct Newton iteration for .op point succeeded.
Total elapsed time: 0.088 seconds.

Files loaded:
C:\Users\garre\ese_3190\lab8\LTSpice\cs_amp.net
C:\Users\garre\AppData\Local\LTspice\lib\cmp\standard.mos
C:\Users\garre\ese_3190\lab8\LTSpice\ALD1103P.txt
C:\Users\garre\ese_3190\lab8\LTSpice\ALD1103N.txt

