LTspice 24.1.1 for Windows
Circuit: C:\Users\garre\ese_3190\lab8\LTSpice\prelab.net
Start Time: Fri Apr  4 18:35:01 2025
solver = Normal
Maximum thread count: 12
tnom = 27
temp = 27
method = trap
.OP point found by inspection.
Total elapsed time: 0.171 seconds.

Files loaded:
C:\Users\garre\ese_3190\lab8\LTSpice\prelab.net
C:\Users\garre\AppData\Local\LTspice\lib\cmp\standard.mos
C:\Users\garre\ese_3190\lab8\LTSpice\ALD1103N.txt
C:\Users\garre\ese_3190\lab8\LTSpice\ALD1103P.txt

