LTspice 24.1.1 for Windows
Circuit: C:\Users\garre\ese_3190\lab10\LTSpice\Final Project.net
Start Time: Fri Apr 18 20:25:35 2025
solver = Normal
Maximum thread count: 12
tnom = 27
temp = 27
method = trap
Direct Newton iteration for .op point succeeded.
Total elapsed time: 3.555 seconds.

Files loaded:
C:\Users\garre\ese_3190\lab10\LTSpice\Final Project.net
C:\Users\garre\AppData\Local\LTspice\lib\cmp\standard.mos
C:\Users\garre\ese_3190\lab10\LTSpice\ALD1103N.txt
C:\Users\garre\ese_3190\lab10\LTSpice\ALD1103P.txt

